MODEL 1
REMARK VINA RESULT:      -6.0      0.000      0.000
REMARK  20 active torsions:
REMARK  status: ('A' for Active; 'I' for Inactive)
REMARK    1  A    between atoms: C1_1  and  C2_4 
REMARK    2  A    between atoms: C2_4  and  O2_5 
REMARK    3  A    between atoms: C4_8  and  O4_9 
REMARK    4  A    between atoms: C5_11  and  N5_12 
REMARK       I    between atoms: N5_12  and  C10_24 
REMARK    5  A    between atoms: C6_14  and  C7_16 
REMARK    6  A    between atoms: C7_16  and  O7_17 
REMARK    7  A    between atoms: C7_16  and  C8_19 
REMARK    8  A    between atoms: C8_19  and  O8_20 
REMARK    9  A    between atoms: C8_19  and  C9_21 
REMARK   10  A    between atoms: O8_20  and  C2_30 
REMARK   11  A    between atoms: C9_21  and  O9_22 
REMARK   12  A    between atoms: C1_27  and  C2_30 
REMARK   13  A    between atoms: C4_32  and  O4_33 
REMARK   14  A    between atoms: C5_35  and  N5_36 
REMARK       I    between atoms: N5_36  and  C10_49 
REMARK   15  A    between atoms: C6_38  and  C7_40 
REMARK   16  A    between atoms: C7_40  and  O7_41 
REMARK   17  A    between atoms: C7_40  and  C8_43 
REMARK   18  A    between atoms: C8_43  and  O8_44 
REMARK   19  A    between atoms: C8_43  and  C9_46 
REMARK   20  A    between atoms: C9_46  and  O9_47 
ROOT
HETATM    1  O8  SIA H   1      47.123  30.528  69.369  1.00 43.47    -0.336 OA
ENDROOT
BRANCH   1   2
HETATM    2  C8  SIA H   1      46.279  31.633  68.978  1.00 44.64     0.180 C 
BRANCH   2   3
HETATM    3  C7  SIA H   1      44.974  31.576  69.840  1.00 45.70     0.180 C 
BRANCH   3   4
HETATM    4  C6  SIA H   1      43.703  31.814  69.029  1.00 46.89     0.182 C 
HETATM    5  C5  SIA H   1      42.568  30.947  69.544  1.00 47.64     0.145 C 
HETATM    6  C4  SIA H   1      41.244  31.248  68.721  1.00 48.95     0.149 C 
HETATM    7  C3  SIA H   1      41.052  32.764  68.274  1.00 47.59     0.114 C 
HETATM    8  C2  SIA H   1      42.405  33.576  68.102  1.00 48.63     0.256 C 
HETATM    9  O6  SIA H   1      43.236  33.205  69.216  1.00 47.84    -0.336 OA
BRANCH   5  10
HETATM   10  N5  SIA H   1      43.019  29.522  69.517  1.00 46.99    -0.352 N 
HETATM   11  C10 SIA H   1      43.299  28.842  70.644  1.00 45.61     0.214 C 
HETATM   12  O10 SIA H   1      43.210  29.298  71.797  1.00 43.92    -0.274 OA
HETATM   13  C11 SIA H   1      43.729  27.398  70.404  1.00 43.50     0.117 C 
ATOM     14  H5  SIA H   1      43.117  29.051  68.617  1.00  0.00     0.163 HD
ENDBRANCH   5  10
BRANCH   6  15
HETATM   15  O4  SIA H   1      40.050  30.782  69.441  1.00 49.39    -0.393 OA
ATOM     16  H4  SIA H   1      39.994  29.835  69.398  1.00  0.00     0.210 HD
ENDBRANCH   6  15
BRANCH   8  17
HETATM   17  C1  SIA H   1      43.162  33.229  66.795  1.00 49.87     0.238 C 
HETATM   18  O1A SIA H   1      42.657  32.500  65.928  1.00 50.82    -0.644 OA
HETATM   19  O1B SIA H   1      44.304  33.685  66.617  1.00 51.85    -0.644 OA
ENDBRANCH   8  17
BRANCH   8  20
HETATM   20  O2  SIA H   1      42.241  35.035  68.084  1.00 45.07    -0.357 OA
ATOM     21  H2  SIA H   1      42.318  35.288  67.171  1.00  0.00     0.213 HD
ENDBRANCH   8  20
ENDBRANCH   3   4
BRANCH   3  22
HETATM   22  O7  SIA H   1      44.988  32.563  70.905  1.00 43.09    -0.390 OA
ATOM     23  H7  SIA H   1      45.860  32.553  71.280  1.00  0.00     0.210 HD
ENDBRANCH   3  22
ENDBRANCH   2   3
BRANCH   2  24
HETATM   24  C9  SIA H   1      47.084  32.954  69.134  1.00 43.82     0.198 C 
BRANCH  24  25
HETATM   25  O9  SIA H   1      46.290  34.086  68.752  1.00 43.16    -0.398 OA
ATOM     26  H9  SIA H   1      46.441  34.819  69.336  1.00  0.00     0.209 HD
ENDBRANCH  24  25
ENDBRANCH   2  24
ENDBRANCH   1   2
BRANCH   1  27
HETATM   27  C2  SIA H   2      47.130  29.453  68.430  1.00 40.50     0.259 C 
HETATM   28  C3  SIA H   2      48.276  29.773  67.456  1.00 40.92     0.114 C 
HETATM   29  C4  SIA H   2      48.268  28.708  66.346  1.00 41.16     0.149 C 
HETATM   30  C5  SIA H   2      46.851  28.560  65.726  1.00 41.46     0.145 C 
HETATM   31  C6  SIA H   2      45.776  28.153  66.754  1.00 40.97     0.182 C 
HETATM   32  O6  SIA H   2      45.824  29.283  67.684  1.00 39.64    -0.336 OA
BRANCH  27  33
HETATM   33  C1  SIA H   2      47.454  28.223  69.243  1.00 37.01     0.239 C 
HETATM   34  O1A SIA H   2      46.763  27.937  70.202  1.00 35.91    -0.644 OA
HETATM   35  O1B SIA H   2      48.399  27.512  68.966  1.00 37.09    -0.644 OA
ENDBRANCH  27  33
BRANCH  29  36
HETATM   36  O4  SIA H   2      49.234  29.062  65.341  1.00 40.10    -0.393 OA
ATOM     37  H4  SIA H   2      49.726  29.821  65.633  1.00  0.00     0.210 HD
ENDBRANCH  29  36
BRANCH  30  38
HETATM   38  N5  SIA H   2      46.892  27.601  64.605  1.00 40.91    -0.352 N 
HETATM   39  C10 SIA H   2      47.033  27.995  63.348  1.00 40.40     0.214 C 
HETATM   40  O10 SIA H   2      47.129  29.185  62.988  1.00 40.44    -0.274 OA
HETATM   41  C11 SIA H   2      47.074  26.814  62.372  1.00 38.77     0.117 C 
ATOM     42  H5  SIA H   2      46.809  26.604  64.804  1.00  0.00     0.163 HD
ENDBRANCH  30  38
BRANCH  31  43
HETATM   43  C7  SIA H   2      44.419  27.896  66.026  1.00 42.43     0.180 C 
BRANCH  43  44
HETATM   44  O7  SIA H   2      43.374  28.563  66.759  1.00 42.86    -0.390 OA
ATOM     45  H7  SIA H   2      42.804  29.002  66.139  1.00  0.00     0.210 HD
ENDBRANCH  43  44
BRANCH  43  46
HETATM   46  C8  SIA H   2      43.972  26.418  65.875  1.00 42.78     0.173 C 
BRANCH  46  47
HETATM   47  O8  SIA H   2      44.983  25.623  65.240  1.00 42.66    -0.391 OA
ATOM     48  H8  SIA H   2      44.636  25.146  64.494  1.00  0.00     0.210 HD
ENDBRANCH  46  47
BRANCH  46  49
HETATM   49  C9  SIA H   2      42.582  26.288  65.151  1.00 44.26     0.198 C 
BRANCH  49  50
HETATM   50  O9  SIA H   2      42.479  25.123  64.272  1.00 42.61    -0.398 OA
ATOM     51  H9  SIA H   2      43.162  24.477  64.407  1.00  0.00     0.209 HD
ENDBRANCH  49  50
ENDBRANCH  46  49
ENDBRANCH  43  46
ENDBRANCH  31  43
ENDBRANCH   1  27
TORSDOF 20
ENDMDL
