MODEL 1
REMARK VINA RESULT:      -4.8      0.000      0.000
REMARK  20 active torsions:
REMARK  status: ('A' for Active; 'I' for Inactive)
REMARK    1  A    between atoms: C1_1  and  C2_4 
REMARK    2  A    between atoms: C2_4  and  O2_5 
REMARK    3  A    between atoms: C4_8  and  O4_9 
REMARK    4  A    between atoms: C5_11  and  N5_12 
REMARK       I    between atoms: N5_12  and  C10_24 
REMARK    5  A    between atoms: C6_14  and  C7_16 
REMARK    6  A    between atoms: C7_16  and  O7_17 
REMARK    7  A    between atoms: C7_16  and  C8_19 
REMARK    8  A    between atoms: C8_19  and  O8_20 
REMARK    9  A    between atoms: C8_19  and  C9_21 
REMARK   10  A    between atoms: O8_20  and  C2_30 
REMARK   11  A    between atoms: C9_21  and  O9_22 
REMARK   12  A    between atoms: C1_27  and  C2_30 
REMARK   13  A    between atoms: C4_32  and  O4_33 
REMARK   14  A    between atoms: C5_35  and  N5_36 
REMARK       I    between atoms: N5_36  and  C10_49 
REMARK   15  A    between atoms: C6_38  and  C7_40 
REMARK   16  A    between atoms: C7_40  and  O7_41 
REMARK   17  A    between atoms: C7_40  and  C8_43 
REMARK   18  A    between atoms: C8_43  and  O8_44 
REMARK   19  A    between atoms: C8_43  and  C9_46 
REMARK   20  A    between atoms: C9_46  and  O9_47 
ROOT
HETATM    1  O8  SIA H   1      47.808  27.850  68.398  1.00 43.47    -0.336 OA
ENDROOT
BRANCH   1   2
HETATM    2  C8  SIA H   1      47.195  28.760  69.337  1.00 44.64     0.180 C 
BRANCH   2   3
HETATM    3  C7  SIA H   1      45.649  28.734  69.100  1.00 45.70     0.180 C 
BRANCH   3   4
HETATM    4  C6  SIA H   1      44.999  30.111  69.199  1.00 46.89     0.182 C 
HETATM    5  C5  SIA H   1      43.783  30.197  68.293  1.00 47.64     0.145 C 
HETATM    6  C4  SIA H   1      43.093  31.618  68.452  1.00 48.95     0.149 C 
HETATM    7  C3  SIA H   1      43.134  32.234  69.919  1.00 47.59     0.114 C 
HETATM    8  C2  SIA H   1      44.353  31.739  70.807  1.00 48.63     0.256 C 
HETATM    9  O6  SIA H   1      44.472  30.325  70.565  1.00 47.84    -0.336 OA
BRANCH   5  10
HETATM   10  N5  SIA H   1      44.212  29.854  66.903  1.00 46.99    -0.352 N 
HETATM   11  C10 SIA H   1      43.374  29.278  66.021  1.00 45.61     0.214 C 
HETATM   12  O10 SIA H   1      42.187  28.983  66.248  1.00 43.92    -0.274 OA
HETATM   13  C11 SIA H   1      43.997  29.022  64.653  1.00 43.50     0.117 C 
ATOM     14  H5  SIA H   1      45.168  30.063  66.614  1.00  0.00     0.163 HD
ENDBRANCH   5  10
BRANCH   6  15
HETATM   15  O4  SIA H   1      41.709  31.599  67.954  1.00 49.39    -0.393 OA
ATOM     16  H4  SIA H   1      41.610  30.918  67.299  1.00  0.00     0.210 HD
ENDBRANCH   6  15
BRANCH   8  17
HETATM   17  C1  SIA H   1      45.697  32.411  70.428  1.00 49.87     0.238 C 
HETATM   18  O1A SIA H   1      45.770  33.235  69.504  1.00 50.82    -0.644 OA
HETATM   19  O1B SIA H   1      46.724  32.110  71.058  1.00 51.85    -0.644 OA
ENDBRANCH   8  17
BRANCH   8  20
HETATM   20  O2  SIA H   1      44.191  31.972  72.247  1.00 45.07    -0.357 OA
ATOM     21  H2  SIA H   1      44.694  31.288  72.673  1.00  0.00     0.213 HD
ENDBRANCH   8  20
ENDBRANCH   3   4
BRANCH   3  22
HETATM   22  O7  SIA H   1      44.972  27.876  70.055  1.00 43.09    -0.390 OA
ATOM     23  H7  SIA H   1      44.276  27.432  69.584  1.00  0.00     0.210 HD
ENDBRANCH   3  22
ENDBRANCH   2   3
BRANCH   2  24
HETATM   24  C9  SIA H   1      47.622  28.353  70.776  1.00 43.82     0.198 C 
BRANCH  24  25
HETATM   25  O9  SIA H   1      47.156  29.310  71.738  1.00 43.16    -0.398 OA
ATOM     26  H9  SIA H   1      46.267  29.114  72.008  1.00  0.00     0.209 HD
ENDBRANCH  24  25
ENDBRANCH   2  24
ENDBRANCH   1   2
BRANCH   1  27
HETATM   27  C2  SIA H   2      48.719  28.482  67.499  1.00 40.50     0.259 C 
HETATM   28  C3  SIA H   2      49.905  27.512  67.373  1.00 40.92     0.114 C 
HETATM   29  C4  SIA H   2      50.980  28.186  66.503  1.00 41.16     0.149 C 
HETATM   30  C5  SIA H   2      51.303  29.613  67.023  1.00 41.46     0.145 C 
HETATM   31  C6  SIA H   2      50.078  30.550  67.036  1.00 40.97     0.182 C 
HETATM   32  O6  SIA H   2      49.188  29.845  67.962  1.00 39.64    -0.336 OA
BRANCH  27  33
HETATM   33  C1  SIA H   2      47.974  28.581  66.189  1.00 37.01     0.239 C 
HETATM   34  O1A SIA H   2      48.154  27.740  65.330  1.00 35.91    -0.644 OA
HETATM   35  O1B SIA H   2      47.200  29.492  65.970  1.00 37.09    -0.644 OA
ENDBRANCH  27  33
BRANCH  29  36
HETATM   36  O4  SIA H   2      52.161  27.365  66.486  1.00 40.10    -0.393 OA
ATOM     37  H4  SIA H   2      52.840  27.801  65.985  1.00  0.00     0.210 HD
ENDBRANCH  29  36
BRANCH  30  38
HETATM   38  N5  SIA H   2      52.401  30.200  66.228  1.00 40.91    -0.352 N 
HETATM   39  C10 SIA H   2      53.669  30.103  66.601  1.00 40.40     0.214 C 
HETATM   40  O10 SIA H   2      54.056  29.535  67.641  1.00 40.44    -0.274 OA
HETATM   41  C11 SIA H   2      54.619  30.767  65.599  1.00 38.77     0.117 C 
ATOM     42  H5  SIA H   2      52.176  30.695  65.365  1.00  0.00     0.163 HD
ENDBRANCH  30  38
BRANCH  31  43
HETATM   43  C7  SIA H   2      50.518  31.991  67.441  1.00 42.43     0.180 C 
BRANCH  43  44
HETATM   44  O7  SIA H   2      51.491  31.892  68.498  1.00 42.86    -0.390 OA
ATOM     45  H7  SIA H   2      51.226  31.196  69.087  1.00  0.00     0.210 HD
ENDBRANCH  43  44
BRANCH  43  46
HETATM   46  C8  SIA H   2      49.409  32.946  67.955  1.00 42.78     0.173 C 
BRANCH  46  47
HETATM   47  O8  SIA H   2      48.970  32.584  69.272  1.00 42.66    -0.391 OA
ATOM     48  H8  SIA H   2      48.950  31.641  69.387  1.00  0.00     0.210 HD
ENDBRANCH  46  47
BRANCH  46  49
HETATM   49  C9  SIA H   2      48.209  33.063  66.947  1.00 44.26     0.198 C 
BRANCH  49  50
HETATM   50  O9  SIA H   2      47.125  32.115  67.205  1.00 42.61    -0.398 OA
ATOM     51  H9  SIA H   2      46.492  32.418  67.846  1.00  0.00     0.209 HD
ENDBRANCH  49  50
ENDBRANCH  46  49
ENDBRANCH  43  46
ENDBRANCH  31  43
ENDBRANCH   1  27
TORSDOF 20
ENDMDL
