@<TRIPOS>MOLECULE
sialic2.pdb
75 76 2 0 0
SMALL
AMBER ff14SB


@<TRIPOS>ATOM
      1 C1          1.3560   11.9860   22.3320 C.2       1 SIA    0.1006
      2 O1A         1.8680   12.1010   21.2090 O.co2     1 SIA   -0.5444
      3 O1B         1.5330   10.9400   22.9780 O.co2     1 SIA   -0.5444
      4 C2          0.4890   13.1150   22.9450 C.3       1 SIA    0.2095
      5 O2          1.0070   13.3120   24.3050 O.3       1 SIA   -0.3608
      6 C3          0.4560   14.4300   22.0570 C.3       1 SIA    0.0352
      7 C4         -0.4770   14.3350   20.7710 C.3       1 SIA    0.0805
      8 O4         -0.9430   15.6760   20.3890 O.3       1 SIA   -0.3909
      9 C5         -1.6880   13.3140   20.8860 C.3       1 SIA    0.0775
     10 N5         -2.2340   12.8310   19.5810 N.am      1 SIA   -0.3074
     11 C6         -1.2660   12.1040   21.7010 C.3       1 SIA    0.1106
     12 O6         -0.8710   12.6500   23.0180 O.3       1 SIA   -0.3367
     13 C7         -2.4310   11.1330   21.8660 C.3       1 SIA    0.1107
     14 O7         -3.3230   11.7060   22.8580 O.3       1 SIA   -0.3875
     15 C8         -1.9810    9.6860   22.2570 C.3       1 SIA    0.1128
     16 O8         -3.1550    8.9440   22.6550 O.3       1 SIA   -0.3362
     17 C9         -0.9440    9.6360   23.4150 C.3       1 SIA    0.0721
     18 O9         -1.3570    8.7120   24.4320 O.3       1 SIA   -0.3936
     19 C10        -3.4320   13.2330   19.1180 C.2       1 SIA    0.2089
     20 O10        -4.1930   14.0300   19.6950 O.2       1 SIA   -0.2781
     21 C11        -3.8020   12.6380   17.7630 C.3       1 SIA    0.0127
     22 H32         1.4724   14.6421   21.7251 H         1 SIA    0.0354
     23 H33         0.1121   15.2589   22.6757 H         1 SIA    0.0354
     24 H4          0.1528   13.9802   19.9551 H         1 SIA    0.0624
     25 H5         -2.4956   13.8126   21.4220 H         1 SIA    0.0559
     26 HN5        -1.6878   12.1839   19.0305 H         1 SIA    0.1499
     27 H6         -0.4202   11.6047   21.2284 H         1 SIA    0.0655
     28 H7         -2.9660   11.0787   20.9179 H         1 SIA    0.0658
     29 H8         -1.5468    9.2069   21.3794 H         1 SIA    0.0658
     30 H92         0.0205    9.3208   23.0169 H         1 SIA    0.0592
     31 H93        -0.8449   10.6298   23.8515 H         1 SIA    0.0592
     32 HO9        -1.5337    7.8561   24.0347 H         1 SIA    0.2102
     33 HO7        -4.0727   11.1213   22.9906 H         1 SIA    0.2107
     34 HO4        -1.4419   16.0597   21.1139 H         1 SIA    0.2106
     35 H111       -4.7802   13.0093   17.4575 H         1 SIA    0.0328
     36 H112       -3.0561   12.9284   17.0231 H         1 SIA    0.0328
     37 H113       -3.8337   11.5512   17.8399 H         1 SIA    0.0328
     38 H2          0.5065   14.0054   24.7412 H         1 SIA    0.2141
     39 C1         -3.4610    7.8730   20.6060 C.2       2 SIA    0.1008
     40 O1A        -4.0420    8.8770   20.2400 O.co2     2 SIA   -0.5444
     41 O1B        -3.0850    7.0730   19.7730 O.co2     2 SIA   -0.5444
     42 C2         -3.2300    7.6400   22.0800 C.3       2 SIA    0.2125
     43 C3         -4.4630    6.9830   22.7220 C.3       2 SIA    0.0354
     44 C4         -4.5370    5.5270   22.2290 C.3       2 SIA    0.0805
     45 O4         -5.5940    4.8440   22.9240 O.3       2 SIA   -0.3909
     46 C5         -3.1790    4.8010   22.4310 C.3       2 SIA    0.0775
     47 N5         -3.3050    3.3840   22.0360 N.am      2 SIA   -0.3074
     48 C6         -2.0100    5.4740   21.6830 C.3       2 SIA    0.1106
     49 O6         -1.9930    6.7980   22.3100 O.3       2 SIA   -0.3366
     50 C7         -0.7200    4.6080   21.8290 C.3       2 SIA    0.1103
     51 O7         -0.7680    3.9270   23.0970 O.3       2 SIA   -0.3875
     52 C8          0.6380    5.3570   21.7860 C.3       2 SIA    0.1055
     53 O8          0.6070    6.4540   20.8620 O.3       2 SIA   -0.3879
     54 C9          1.8440    4.3880   21.5070 C.3       2 SIA    0.0717
     55 O9          1.8900    3.8790   20.1360 O.3       2 SIA   -0.3936
     56 C10        -3.5290    2.4240   22.9210 C.2       2 SIA    0.2089
     57 O10        -3.6390    2.6100   24.1490 O.2       2 SIA   -0.2781
     58 C11        -3.6470    1.0450   22.2640 C.3       2 SIA    0.0127
     59 H32        -4.3686    7.0014   23.8077 H         2 SIA    0.0354
     60 H33        -5.3634    7.5191   22.4220 H         2 SIA    0.0354
     61 H4         -4.7708    5.5337   21.1644 H         2 SIA    0.0624
     62 H5         -2.9470    4.8267   23.4957 H         2 SIA    0.0559
     63 HN5        -3.2176    3.1388   21.0601 H         2 SIA    0.1499
     64 H6         -2.2632    5.5745   20.6276 H         2 SIA    0.0655
     65 H7         -0.7212    3.8577   21.0383 H         2 SIA    0.0658
     66 H8          0.7964    5.7823   22.7770 H         2 SIA    0.0654
     67 H92         2.7704    4.9275   21.7040 H         2 SIA    0.0592
     68 H93         1.7791    3.5426   22.1920 H         2 SIA    0.0592
     69 HO8        -0.0503    7.0936   21.1458 H         2 SIA    0.2107
     70 HO4        -5.6431    3.9351   22.6189 H         2 SIA    0.2106
     71 H111       -3.8304    0.2915   23.0300 H         2 SIA    0.0328
     72 H112       -4.4745    1.0504   21.5546 H         2 SIA    0.0328
     73 H113       -2.7203    0.8119   21.7395 H         2 SIA    0.0328
     74 HO7        -1.0798    4.5325   23.7736 H         2 SIA    0.2107
     75 HO9         2.6467    3.2969   20.0355 H         2 SIA    0.2102
@<TRIPOS>BOND
     1    1    2 2
     2    1    3 2
     3    1    4 1
     4    4    5 1
     5    4    6 1
     6    4   12 1
     7    6    7 1
     8    7    8 1
     9    7    9 1
    10    9   10 1
    11    9   11 1
    12   10   19 am
    13   11   12 1
    14   11   13 1
    15   13   14 1
    16   13   15 1
    17   15   16 1
    18   15   17 1
    19   16   42 1
    20   17   18 1
    21   19   20 2
    22   19   21 1
    23   39   40 2
    24   39   41 2
    25   39   42 1
    26   42   43 1
    27   42   49 1
    28   43   44 1
    29   44   45 1
    30   44   46 1
    31   46   47 1
    32   46   48 1
    33   47   56 am
    34   48   49 1
    35   48   50 1
    36   50   51 1
    37   50   52 1
    38   52   53 1
    39   52   54 1
    40   54   55 1
    41   56   57 2
    42   56   58 1
    43   22    6 1
    44   23    6 1
    45   24    7 1
    46   25    9 1
    47   26   10 1
    48   27   11 1
    49   28   13 1
    50   29   15 1
    51   30   17 1
    52   31   17 1
    53   59   43 1
    54   60   43 1
    55   61   44 1
    56   62   46 1
    57   63   47 1
    58   64   48 1
    59   65   50 1
    60   66   52 1
    61   67   54 1
    62   68   54 1
    63   32   18 1
    64   69   53 1
    65   70   45 1
    66   71   58 1
    67   72   58 1
    68   73   58 1
    69   33   14 1
    70   34    8 1
    71   74   51 1
    72   35   21 1
    73   36   21 1
    74   37   21 1
    75   75   55 1
    76   38    5 1
@<TRIPOS>SUBSTRUCTURE
     1 SIA     1 RESIDUE           4 H     SIA     1 ROOT
     2 SIA    39 RESIDUE           4 H     SIA     1
